prescribeddispbcneumann01.out
Small RVE for test of Neumann BC.
StaticStructural nsteps 1 deltat 1.0 constrainednrminiter 5 rtolf 1.0e-3  MaxIter 10 minIter 1 initialguess 1 nmodules 1
errorcheck
#vtkxml tstep_all domain_all primvars 1 1 vars 2 1 4
#matlab tstep_all mesh data specials reactionforces vars 2 1 4
domain 2dPlaneStress
OutputManager tstep_all dofman_all element_all
ndofman 9 nelem 4 ncrosssect 2 nmat 2 nbc 3 nic 0 nltf 1 nset 5 nxfemman 0
node 1 coords 3 -0.1 -0.1 0
node 2 coords 3 0 -0.1 0
node 3 coords 3 0.1 -0.1 0
node 4 coords 3 -0.1 0 0
node 5 coords 3 0 0 0
node 6 coords 3 0.1 0 0
node 7 coords 3 -0.1 0.1 0
node 8 coords 3 0 0.1 0
node 9 coords 3 0.1 0.1 0
planestress2d 1 nodes 4 1 2 5 4 crosssect 1
planestress2d 2 nodes 4 2 3 6 5 crosssect 1
planestress2d 3 nodes 4 4 5 8 7 crosssect 1
planestress2d 4 nodes 4 5 6 9 8 crosssect 1
SimpleCS 1 thick 1.0 material 1 set 3
SimpleCS 2 thick 1.0 material 2 set 4
IsoLE 1 d 1.0 E 210e9 n 0.3 tAlpha 0.0
IsoLE 2 d 1.0 E 50e9 n 0.2 tAlpha 0.0
PrescribedDispSlipBCNeumannRC 1 dofs 2 1 2 set 1 loadTimeFunction 1 dispgrad 2 2 {0.3 0.4; 0.4 -0.5}
BoundaryCondition 2 dofs 2 1 2 set 2 loadTimeFunction 1 values 2 0.0 0.0
BoundaryCondition 3 dofs 1 1 set 5 loadTimeFunction 1 values 1 0.0
ConstantFunction 1 f(t) 1.0
set 1 elementboundaries 16 1 1 2 1 2 2 4 2 4 3 3 3 3 4 1 4
set 2 nodes 1 7
set 3 elements 3 1 3 4
set 4 elements 1 2
set 5 nodes 1 1

#%BEGIN_CHECK% tolerance 1.e-3
#NODE tStep 1 number 3 dof 1 unknown d value -1.16801523e-02
#NODE tStep 1 number 3 dof 2 unknown d value 2.54181813e-01
#NODE tStep 1 number 9 dof 1 unknown d value 1.00625388e-01
#NODE tStep 1 number 9 dof 2 unknown d value 4.86249828e-02

#ELEMENT tStep 1 number 1 gp 1 keyword 4 component 1 value 1.68474611e-01
#ELEMENT tStep 1 number 1 gp 2 keyword 4 component 1 value -1.93573531e-01
#ELEMENT tStep 1 number 1 gp 3 keyword 4 component 1 value 1.68474611e-01
#ELEMENT tStep 1 number 1 gp 4 keyword 4 component 1 value -1.93573531e-01

#ELEMENT tStep 1 number 2 gp 1 keyword 4 component 1 value 4.02508007e-01
#ELEMENT tStep 1 number 2 gp 2 keyword 4 component 1 value 2.61063213e-01
#ELEMENT tStep 1 number 2 gp 3 keyword 4 component 1 value 4.02508007e-01
#ELEMENT tStep 1 number 2 gp 4 keyword 4 component 1 value 2.61063213e-01

#ELEMENT tStep 1 number 3 gp 1 keyword 4 component 1 value 6.25443750e-01
#ELEMENT tStep 1 number 3 gp 2 keyword 4 component 1 value 3.87929630e-01
#ELEMENT tStep 1 number 3 gp 3 keyword 4 component 1 value 6.25443750e-01
#ELEMENT tStep 1 number 3 gp 4 keyword 4 component 1 value 3.87929630e-01

#ELEMENT tStep 1 number 4 gp 1 keyword 4 component 1 value 3.27771801e-01
#ELEMENT tStep 1 number 4 gp 2 keyword 4 component 1 value 4.20382519e-01
#ELEMENT tStep 1 number 4 gp 3 keyword 4 component 1 value 3.27771801e-01
#ELEMENT tStep 1 number 4 gp 4 keyword 4 component 1 value 4.20382519e-01
#%END_CHECK%

