prescribeddispbcneumann02.out
Small RVE for test of Neumann BC.
StaticStructural nsteps 1 deltat 1.0 constrainednrminiter 5 rtolf 1.0e-3  MaxIter 10 minIter 1 initialguess 1 nmodules 1
errorcheck
#vtkxml tstep_all domain_all primvars 1 1 vars 2 1 4
#matlab tstep_all mesh data specials reactionforces
domain 2dPlaneStress
OutputManager tstep_all dofman_all element_all
ndofman 9 nelem 8 ncrosssect 2 nmat 2 nbc 3 nic 0 nltf 1 nset 5 nxfemman 0
node 1 coords 3 -0.1 -0.1 0
node 2 coords 3 0 -0.1 0
node 3 coords 3 0.1 -0.1 0
node 4 coords 3 -0.1 0 0
node 5 coords 3 0 0 0
node 6 coords 3 0.1 0 0
node 7 coords 3 -0.1 0.1 0
node 8 coords 3 0 0.1 0
node 9 coords 3 0.1 0.1 0
trplanestress2d 1 nodes 3 1 2 5 crossSect 1
trplanestress2d 2 nodes 3 2 3 6 crossSect 1
trplanestress2d 3 nodes 3 5 6 9 crossSect 1
trplanestress2d 4 nodes 3 4 5 8 crossSect 1
trplanestress2d 5 nodes 3 1 5 4 crossSect 1
trplanestress2d 6 nodes 3 2 6 5 crossSect 1
trplanestress2d 7 nodes 3 5 9 8 crossSect 1
trplanestress2d 8 nodes 3 4 8 7 crossSect 1
SimpleCS 1 thick 1.0 material 1 set 3
SimpleCS 2 thick 1.0 material 2 set 4
IsoLE 1 d 1.0 E 210e9 n 0.3 tAlpha 0.0
IsoLE 2 d 1.0 E 50e9 n 0.2 tAlpha 0.0
PrescribedDispSlipBCNeumannRC 1 dofs 2 1 2 set 1 loadTimeFunction 1 dispgrad 2 2 {0.3 0.4; 0.4 -0.5}
BoundaryCondition 2 dofs 2 1 2 set 2 loadTimeFunction 1 values 2 0.0 0.0
BoundaryCondition 3 dofs 1 1 set 5 loadTimeFunction 1 values 1 0.0
ConstantFunction 1 f(t) 1.0
set 1 elementboundaries 16 1 1 2 1 2 2 3 2 7 2 8 2 8 3 5 3
set 2 nodes 1 7
set 3 elements 3 1 3 4
set 4 elements 1 2
set 5 nodes 1 1

#%BEGIN_CHECK% tolerance 1.e-3
#NODE tStep 1 number 3 dof 1 unknown d value -7.01945096e-04
#NODE tStep 1 number 3 dof 2 unknown d value 2.48561844e-01
#NODE tStep 1 number 9 dof 1 unknown d value 1.22707126e-01
#NODE tStep 1 number 9 dof 2 unknown d value 7.16289030e-02
#ELEMENT tStep 1 number 1 gp 1 keyword 4 component 1 value -1.90273549e-01
#ELEMENT tStep 1 number 2 gp 1 keyword 4 component 1 value 1.83254098e-01
#ELEMENT tStep 1 number 3 gp 1 keyword 4 component 1 value 2.94421447e-01
#ELEMENT tStep 1 number 4 gp 1 keyword 4 component 1 value 2.95552650e-01
#ELEMENT tStep 1 number 5 gp 1 keyword 4 component 1 value 2.95552650e-01
#ELEMENT tStep 1 number 6 gp 1 keyword 4 component 1 value 2.94421447e-01
#ELEMENT tStep 1 number 7 gp 1 keyword 4 component 1 value 4.34390160e-01
#ELEMENT tStep 1 number 8 gp 1 keyword 4 component 1 value 7.92681097e-01
#%END_CHECK%

